data_image0
_chemical_formula_structural       C76H36C76H36
_chemical_formula_sum              "C152 H72"
_cell_length_a       31.1266
_cell_length_b       3.68338
_cell_length_c       21.6148
_cell_angle_alpha    90
_cell_angle_beta     124.592
_cell_angle_gamma    90

_space_group_name_H-M_alt    "P 1"
_space_group_IT_number       1

loop_
  _space_group_symop_operation_xyz
  'x, y, z'

loop_
  _atom_site_type_symbol
  _atom_site_label
  _atom_site_symmetry_multiplicity
  _atom_site_fract_x
  _atom_site_fract_y
  _atom_site_fract_z
  _atom_site_occupancy
  C   C1        1.0  0.97149  0.13017  0.31067  1.0000
  C   C2        1.0  0.47149  0.36983  0.31067  1.0000
  C   C3        1.0  0.95239  0.12331  0.35562  1.0000
  C   C4        1.0  0.45239  0.37669  0.35562  1.0000
  C   C5        1.0  0.98254  0.25076  0.42954  1.0000
  C   C6        1.0  0.48254  0.24924  0.42954  1.0000
  C   C7        1.0  0.03219  0.38649  0.45997  1.0000
  C   C8        1.0  0.53219  0.11351  0.45997  1.0000
  C   C9        1.0  0.05367  0.39493  0.41730  1.0000
  C   C10       1.0  0.55367  0.10507  0.41730  1.0000
  C   C11       1.0  0.10438  0.52652  0.44650  1.0000
  C   C12       1.0  0.60438  0.97348  0.44650  1.0000
  C   C13       1.0  0.12454  0.53988  0.40345  1.0000
  C   C14       1.0  0.62454  0.96012  0.40345  1.0000
  C   C15       1.0  0.17472  0.69112  0.43142  1.0000
  C   C16       1.0  0.67472  0.80888  0.43142  1.0000
  C   C17       1.0  0.19381  0.70101  0.38829  1.0000
  C   C18       1.0  0.69381  0.79899  0.38829  1.0000
  C   C19       1.0  0.16512  0.56238  0.31287  1.0000
  C   C20       1.0  0.66512  0.93762  0.31287  1.0000
  C   C21       1.0  0.18504  0.56345  0.26800  1.0000
  C   C22       1.0  0.68504  0.93655  0.26800  1.0000
  C   C23       1.0  0.24002  0.61221  0.29859  1.0000
  C   C24       1.0  0.74002  0.88779  0.29859  1.0000
  C   C25       1.0  0.28018  0.52612  0.37298  1.0000
  C   C26       1.0  0.78018  0.97388  0.37298  1.0000
  C   C27       1.0  0.33223  0.60163  0.40190  1.0000
  C   C28       1.0  0.83223  0.89837  0.40190  1.0000
  C   C29       1.0  0.34578  0.76536  0.35764  1.0000
  C   C30       1.0  0.84578  0.73464  0.35764  1.0000
  C   C31       1.0  0.30770  0.82243  0.28064  1.0000
  C   C32       1.0  0.80770  0.67757  0.28064  1.0000
  C   C33       1.0  0.32091  0.95531  0.23145  1.0000
  C   C34       1.0  0.82091  0.54469  0.23145  1.0000
  C   C35       1.0  0.28442  0.97579  0.15575  1.0000
  C   C36       1.0  0.78442  0.52421  0.15575  1.0000
  C   C37       1.0  0.23196  0.86338  0.12334  1.0000
  C   C38       1.0  0.73196  0.63662  0.12334  1.0000
  C   C39       1.0  0.19471  0.85330  0.04448  1.0000
  C   C40       1.0  0.69471  0.64670  0.04448  1.0000
  C   C41       1.0  0.14526  0.72373  0.01424  1.0000
  C   C42       1.0  0.64526  0.77627  0.01424  1.0000
  C   C43       1.0  0.12934  0.60854  0.06094  1.0000
  C   C44       1.0  0.62934  0.89146  0.06094  1.0000
  C   C45       1.0  0.07801  0.48276  0.03074  1.0000
  C   C46       1.0  0.57801  0.01724  0.03074  1.0000
  C   C47       1.0  0.06279  0.38446  0.07663  1.0000
  C   C48       1.0  0.56279  0.11554  0.07663  1.0000
  C   C49       1.0  0.09717  0.41018  0.15603  1.0000
  C   C50       1.0  0.59717  0.08982  0.15603  1.0000
  C   C51       1.0  0.07996  0.33588  0.20396  1.0000
  C   C52       1.0  0.57996  0.16412  0.20396  1.0000
  C   C53       1.0  0.03073  0.18541  0.17649  1.0000
  C   C54       1.0  0.53073  0.31459  0.17649  1.0000
  C   C55       1.0  0.01149  0.15591  0.22067  1.0000
  C   C56       1.0  0.51149  0.34409  0.22067  1.0000
  C   C57       1.0  0.96069  0.01246  0.19189  1.0000
  C   C58       1.0  0.46069  0.48754  0.19189  1.0000
  C   C59       1.0  0.94130  0.00195  0.23461  1.0000
  C   C60       1.0  0.44130  0.49805  0.23461  1.0000
  C   C61       1.0  0.02273  0.26720  0.34144  1.0000
  C   C62       1.0  0.52273  0.23280  0.34144  1.0000
  C   C63       1.0  0.04276  0.28067  0.29681  1.0000
  C   C64       1.0  0.54276  0.21933  0.29681  1.0000
  C   C65       1.0  0.09349  0.41774  0.32680  1.0000
  C   C66       1.0  0.59349  0.08226  0.32680  1.0000
  C   C67       1.0  0.11291  0.43883  0.28125  1.0000
  C   C68       1.0  0.61292  0.06117  0.28125  1.0000
  C   C69       1.0  0.14922  0.52811  0.18827  1.0000
  C   C70       1.0  0.64922  0.97189  0.18827  1.0000
  C   C71       1.0  0.16528  0.62459  0.14020  1.0000
  C   C72       1.0  0.66528  0.87541  0.14020  1.0000
  C   C73       1.0  0.21705  0.74788  0.17127  1.0000
  C   C74       1.0  0.71705  0.75212  0.17127  1.0000
  C   C75       1.0  0.25470  0.73272  0.25035  1.0000
  C   C76       1.0  0.75470  0.76728  0.25035  1.0000
  H   H1        1.0  0.91358  0.01532  0.33243  1.0000
  H   H2        1.0  0.41358  0.48468  0.33243  1.0000
  H   H3        1.0  0.96677  0.24121  0.46344  1.0000
  H   H4        1.0  0.46677  0.25879  0.46344  1.0000
  H   H5        1.0  0.05514  0.49329  0.51700  1.0000
  H   H6        1.0  0.55514  0.00671  0.51700  1.0000
  H   H7        1.0  0.12816  0.62447  0.50425  1.0000
  H   H8        1.0  0.62816  0.87553  0.50425  1.0000
  H   H9        1.0  0.19702  0.81169  0.48738  1.0000
  H   H10       1.0  0.69702  0.68831  0.48738  1.0000
  H   H11       1.0  0.23095  0.83449  0.41032  1.0000
  H   H12       1.0  0.73095  0.66551  0.41032  1.0000
  H   H13       1.0  0.27085  0.38865  0.40842  1.0000
  H   H14       1.0  0.77085  0.11136  0.40842  1.0000
  H   H15       1.0  0.36234  0.53214  0.45995  1.0000
  H   H16       1.0  0.86234  0.96787  0.45995  1.0000
  H   H17       1.0  0.38612  0.84006  0.38121  1.0000
  H   H18       1.0  0.88612  0.65994  0.38121  1.0000
  H   H19       1.0  0.36115  0.03511  0.25554  1.0000
  H   H20       1.0  0.86115  0.46489  0.25554  1.0000
  H   H21       1.0  0.29524  0.07196  0.11870  1.0000
  H   H22       1.0  0.79524  0.42804  0.11870  1.0000
  H   H23       1.0  0.20622  0.94891  0.00815  1.0000
  H   H24       1.0  0.70622  0.55109  0.00815  1.0000
  H   H25       1.0  0.11713  0.70956  0.95349  1.0000
  H   H26       1.0  0.61713  0.79044  0.95349  1.0000
  H   H27       1.0  0.05022  0.47155  0.96998  1.0000
  H   H28       1.0  0.55022  0.02845  0.96998  1.0000
  H   H29       1.0  0.02293  0.29259  0.05127  1.0000
  H   H30       1.0  0.52293  0.20741  0.05127  1.0000
  H   H31       1.0  0.00630  0.08824  0.11880  1.0000
  H   H32       1.0  0.50630  0.41176  0.11880  1.0000
  H   H33       1.0  0.93751  0.91281  0.13431  1.0000
  H   H34       1.0  0.43751  0.58719  0.13431  1.0000
  H   H35       1.0  0.90245  0.89263  0.21175  1.0000
  H   H36       1.0  0.40245  0.60737  0.21175  1.0000
  C   C77       1.0  0.50780  0.62850  0.71993  1.0000
  C   C78       1.0  0.00780  0.87150  0.71993  1.0000
  C   C79       1.0  0.52687  0.62046  0.67495  1.0000
  C   C80       1.0  0.02687  0.87954  0.67495  1.0000
  C   C81       1.0  0.49673  0.74754  0.60099  1.0000
  C   C82       1.0  0.99673  0.75246  0.60099  1.0000
  C   C83       1.0  0.44711  0.88390  0.57055  1.0000
  C   C84       1.0  0.94711  0.61610  0.57055  1.0000
  C   C85       1.0  0.42566  0.89347  0.61325  1.0000
  C   C86       1.0  0.92566  0.60653  0.61325  1.0000
  C   C87       1.0  0.37498  0.02576  0.58403  1.0000
  C   C88       1.0  0.87498  0.47424  0.58403  1.0000
  C   C89       1.0  0.35484  0.04041  0.62711  1.0000
  C   C90       1.0  0.85484  0.45959  0.62711  1.0000
  C   C91       1.0  0.30470  0.19236  0.59912  1.0000
  C   C92       1.0  0.80470  0.30764  0.59912  1.0000
  C   C93       1.0  0.28561  0.20317  0.64225  1.0000
  C   C94       1.0  0.78561  0.29683  0.64225  1.0000
  C   C95       1.0  0.31429  0.06494  0.71770  1.0000
  C   C96       1.0  0.81429  0.43506  0.71770  1.0000
  C   C97       1.0  0.29435  0.06661  0.76254  1.0000
  C   C98       1.0  0.79435  0.43339  0.76254  1.0000
  C   C99       1.0  0.23936  0.11534  0.73190  1.0000
  C   C100      1.0  0.73936  0.38466  0.73190  1.0000
  C   C101      1.0  0.19922  0.02878  0.65753  1.0000
  C   C102      1.0  0.69922  0.47122  0.65753  1.0000
  C   C103      1.0  0.14716  0.10389  0.62857  1.0000
  C   C104      1.0  0.64716  0.39611  0.62857  1.0000
  C   C105      1.0  0.13357  0.26786  0.67277  1.0000
  C   C106      1.0  0.63357  0.23214  0.67277  1.0000
  C   C107      1.0  0.17163  0.32556  0.74975  1.0000
  C   C108      1.0  0.67163  0.17444  0.74975  1.0000
  C   C109      1.0  0.15839  0.45879  0.79887  1.0000
  C   C110      1.0  0.65839  0.04121  0.79887  1.0000
  C   C111      1.0  0.19485  0.47944  0.87458  1.0000
  C   C112      1.0  0.69485  0.02056  0.87458  1.0000
  C   C113      1.0  0.24731  0.36695  0.90706  1.0000
  C   C114      1.0  0.74731  0.13305  0.90706  1.0000
  C   C115      1.0  0.28452  0.35660  0.98593  1.0000
  C   C116      1.0  0.78452  0.14340  0.98593  1.0000
  C   C117      1.0  0.33399  0.22716  0.01621  1.0000
  C   C118      1.0  0.83399  0.27284  0.01621  1.0000
  C   C119      1.0  0.34995  0.11220  0.96957  1.0000
  C   C120      1.0  0.84995  0.38780  0.96957  1.0000
  C   C121      1.0  0.40129  0.98629  0.99983  1.0000
  C   C122      1.0  0.90129  0.51371  0.99983  1.0000
  C   C123      1.0  0.41655  0.88791  0.95399  1.0000
  C   C124      1.0  0.91655  0.61209  0.95399  1.0000
  C   C125      1.0  0.38220  0.91360  0.87458  1.0000
  C   C126      1.0  0.88220  0.58640  0.87458  1.0000
  C   C127      1.0  0.39943  0.83873  0.82669  1.0000
  C   C128      1.0  0.89943  0.66127  0.82669  1.0000
  C   C129      1.0  0.44865  0.68797  0.85420  1.0000
  C   C130      1.0  0.94865  0.81203  0.85420  1.0000
  C   C131      1.0  0.46787  0.65732  0.81001  1.0000
  C   C132      1.0  0.96787  0.84268  0.81001  1.0000
  C   C133      1.0  0.51864  0.51326  0.83881  1.0000
  C   C134      1.0  0.01864  0.98674  0.83881  1.0000
  C   C135      1.0  0.53799  0.50112  0.79604  1.0000
  C   C136      1.0  0.03799  0.99888  0.79604  1.0000
  C   C137      1.0  0.45660  0.76639  0.68916  1.0000
  C   C138      1.0  0.95660  0.73361  0.68916  1.0000
  C   C139      1.0  0.43660  0.78125  0.73382  1.0000
  C   C140      1.0  0.93660  0.71875  0.73382  1.0000
  C   C141      1.0  0.38590  0.91893  0.70381  1.0000
  C   C142      1.0  0.88590  0.58107  0.70381  1.0000
  C   C143      1.0  0.36649  0.94113  0.74936  1.0000
  C   C144      1.0  0.86649  0.55887  0.74936  1.0000
  C   C145      1.0  0.33015  0.03162  0.84228  1.0000
  C   C146      1.0  0.83015  0.46838  0.84228  1.0000
  C   C147      1.0  0.31406  0.12829  0.89030  1.0000
  C   C148      1.0  0.81406  0.37171  0.89030  1.0000
  C   C149      1.0  0.26227  0.25152  0.85918  1.0000
  C   C150      1.0  0.76227  0.24848  0.85918  1.0000
  C   C151      1.0  0.22465  0.23609  0.78009  1.0000
  C   C152      1.0  0.72465  0.26391  0.78009  1.0000
  H   H37       1.0  0.56565  0.51181  0.69813  1.0000
  H   H38       1.0  0.06565  0.98819  0.69813  1.0000
  H   H39       1.0  0.51249  0.73725  0.56709  1.0000
  H   H40       1.0  0.01249  0.76275  0.56709  1.0000
  H   H41       1.0  0.42418  0.99045  0.51350  1.0000
  H   H42       1.0  0.92418  0.50955  0.51350  1.0000
  H   H43       1.0  0.35120  0.12315  0.52625  1.0000
  H   H44       1.0  0.85120  0.37685  0.52625  1.0000
  H   H45       1.0  0.28246  0.31313  0.54317  1.0000
  H   H46       1.0  0.78246  0.18687  0.54317  1.0000
  H   H47       1.0  0.24850  0.33715  0.62021  1.0000
  H   H48       1.0  0.74850  0.16285  0.62021  1.0000
  H   H49       1.0  0.20858  0.89119  0.62213  1.0000
  H   H50       1.0  0.70858  0.60881  0.62213  1.0000
  H   H51       1.0  0.11706  0.03388  0.57055  1.0000
  H   H52       1.0  0.61706  0.46612  0.57055  1.0000
  H   H53       1.0  0.09321  0.34220  0.64916  1.0000
  H   H54       1.0  0.59321  0.15780  0.64916  1.0000
  H   H55       1.0  0.11814  0.53868  0.77473  1.0000
  H   H56       1.0  0.61814  0.96132  0.77473  1.0000
  H   H57       1.0  0.18400  0.57587  0.91157  1.0000
  H   H58       1.0  0.68400  0.92413  0.91157  1.0000
  H   H59       1.0  0.27296  0.45166  0.02224  1.0000
  H   H60       1.0  0.77296  0.04834  0.02224  1.0000
  H   H61       1.0  0.36207  0.21280  0.07697  1.0000
  H   H62       1.0  0.86207  0.28720  0.07697  1.0000
  H   H63       1.0  0.42903  0.97474  0.06059  1.0000
  H   H64       1.0  0.92903  0.52526  0.06059  1.0000
  H   H65       1.0  0.45640  0.79572  0.97938  1.0000
  H   H66       1.0  0.95640  0.70428  0.97938  1.0000
  H   H67       1.0  0.47309  0.59134  0.91194  1.0000
  H   H68       1.0  0.97309  0.90866  0.91194  1.0000
  H   H69       1.0  0.54184  0.41447  0.89645  1.0000
  H   H70       1.0  0.04184  0.08553  0.89645  1.0000
  H   H71       1.0  0.57681  0.39119  0.81892  1.0000
  H   H72       1.0  0.07681  0.10881  0.81892  1.0000
