data_image0
_chemical_formula_structural       C168H96
_chemical_formula_sum              "C168 H96"
_cell_length_a       11.1834
_cell_length_b       10.6565
_cell_length_c       21.2927
_cell_angle_alpha    90
_cell_angle_beta     92.8979
_cell_angle_gamma    90

_space_group_name_H-M_alt    "P 1"
_space_group_IT_number       1

loop_
  _space_group_symop_operation_xyz
  'x, y, z'

loop_
  _atom_site_type_symbol
  _atom_site_label
  _atom_site_symmetry_multiplicity
  _atom_site_fract_x
  _atom_site_fract_y
  _atom_site_fract_z
  _atom_site_occupancy
  C   C1        1.0  0.83888  0.48848  0.06790  1.0000
  C   C2        1.0  0.66112  0.98848  0.43210  1.0000
  C   C3        1.0  0.16112  0.51152  0.93210  1.0000
  C   C4        1.0  0.33888  0.01152  0.56790  1.0000
  C   C5        1.0  0.78252  0.54331  0.01526  1.0000
  C   C6        1.0  0.71748  0.04331  0.48474  1.0000
  C   C7        1.0  0.21748  0.45669  0.98474  1.0000
  C   C8        1.0  0.28252  0.95669  0.51526  1.0000
  C   C9        1.0  0.76027  0.47786  0.95864  1.0000
  C   C10       1.0  0.73973  0.97786  0.54136  1.0000
  C   C11       1.0  0.23973  0.52214  0.04136  1.0000
  C   C12       1.0  0.26027  0.02214  0.45864  1.0000
  C   C13       1.0  0.79254  0.35389  0.95509  1.0000
  C   C14       1.0  0.70746  0.85389  0.54491  1.0000
  C   C15       1.0  0.20746  0.64611  0.04491  1.0000
  C   C16       1.0  0.29254  0.14611  0.45509  1.0000
  C   C17       1.0  0.85196  0.29336  0.00700  1.0000
  C   C18       1.0  0.64804  0.79336  0.49300  1.0000
  C   C19       1.0  0.14804  0.70664  0.99300  1.0000
  C   C20       1.0  0.35196  0.20664  0.50700  1.0000
  C   C21       1.0  0.87923  0.16422  0.00170  1.0000
  C   C22       1.0  0.62077  0.66422  0.49830  1.0000
  C   C23       1.0  0.12077  0.83578  0.99830  1.0000
  C   C24       1.0  0.37923  0.33578  0.50170  1.0000
  C   C25       1.0  0.93281  0.10012  0.05141  1.0000
  C   C26       1.0  0.56719  0.60012  0.44859  1.0000
  C   C27       1.0  0.06719  0.89988  0.94859  1.0000
  C   C28       1.0  0.43281  0.39988  0.55141  1.0000
  C   C29       1.0  0.96680  0.16564  0.10655  1.0000
  C   C30       1.0  0.53320  0.66564  0.39345  1.0000
  C   C31       1.0  0.03320  0.83436  0.89345  1.0000
  C   C32       1.0  0.46680  0.33436  0.60655  1.0000
  C   C33       1.0  0.94534  0.29281  0.11417  1.0000
  C   C34       1.0  0.55466  0.79281  0.38583  1.0000
  C   C35       1.0  0.05466  0.70719  0.88583  1.0000
  C   C36       1.0  0.44534  0.20719  0.61417  1.0000
  C   C37       1.0  0.88072  0.36085  0.06469  1.0000
  C   C38       1.0  0.61928  0.86085  0.43531  1.0000
  C   C39       1.0  0.11928  0.63915  0.93531  1.0000
  C   C40       1.0  0.38072  0.13915  0.56469  1.0000
  C   C41       1.0  0.80024  0.52860  0.18136  1.0000
  C   C42       1.0  0.69976  0.02860  0.31864  1.0000
  C   C43       1.0  0.19976  0.47140  0.81864  1.0000
  C   C44       1.0  0.30024  0.97140  0.68136  1.0000
  C   C45       1.0  0.84940  0.56718  0.12539  1.0000
  C   C46       1.0  0.65060  0.06718  0.37461  1.0000
  C   C47       1.0  0.15060  0.43282  0.87461  1.0000
  C   C48       1.0  0.34940  0.93282  0.62539  1.0000
  C   C49       1.0  0.91226  0.68062  0.12401  1.0000
  C   C50       1.0  0.58774  0.18062  0.37599  1.0000
  C   C51       1.0  0.08774  0.31938  0.87599  1.0000
  C   C52       1.0  0.41226  0.81938  0.62401  1.0000
  C   C53       1.0  0.93539  0.75132  0.17881  1.0000
  C   C54       1.0  0.56461  0.25132  0.32119  1.0000
  C   C55       1.0  0.06461  0.24868  0.82119  1.0000
  C   C56       1.0  0.43539  0.74868  0.67881  1.0000
  C   C57       1.0  0.89201  0.70724  0.23668  1.0000
  C   C58       1.0  0.60799  0.20724  0.26332  1.0000
  C   C59       1.0  0.10799  0.29276  0.76332  1.0000
  C   C60       1.0  0.39201  0.79276  0.73668  1.0000
  C   C61       1.0  0.00842  0.86162  0.17969  1.0000
  C   C62       1.0  0.49158  0.36162  0.32031  1.0000
  C   C63       1.0  0.99158  0.13838  0.82031  1.0000
  C   C64       1.0  0.50842  0.63838  0.67969  1.0000
  C   C65       1.0  0.03547  0.92526  0.23415  1.0000
  C   C66       1.0  0.46453  0.42526  0.26585  1.0000
  C   C67       1.0  0.96453  0.07474  0.76585  1.0000
  C   C68       1.0  0.53547  0.57474  0.73415  1.0000
  C   C69       1.0  0.99313  0.88297  0.29277  1.0000
  C   C70       1.0  0.50687  0.38297  0.20723  1.0000
  C   C71       1.0  0.00687  0.11703  0.70723  1.0000
  C   C72       1.0  0.49313  0.61703  0.79277  1.0000
  C   C73       1.0  0.92229  0.77164  0.29363  1.0000
  C   C74       1.0  0.57771  0.27164  0.20637  1.0000
  C   C75       1.0  0.07771  0.22836  0.70637  1.0000
  C   C76       1.0  0.42229  0.72836  0.79363  1.0000
  C   C77       1.0  0.01953  0.94674  0.34947  1.0000
  C   C78       1.0  0.48047  0.44674  0.15053  1.0000
  C   C79       1.0  0.98047  0.05326  0.65053  1.0000
  C   C80       1.0  0.51953  0.55326  0.84947  1.0000
  C   C81       1.0  0.97915  0.90116  0.40594  1.0000
  C   C82       1.0  0.52085  0.40116  0.09406  1.0000
  C   C83       1.0  0.02085  0.09884  0.59406  1.0000
  C   C84       1.0  0.47915  0.59884  0.90594  1.0000
  C   C85       1.0  0.91329  0.79042  0.40743  1.0000
  C   C86       1.0  0.58671  0.29042  0.09257  1.0000
  C   C87       1.0  0.08671  0.20958  0.59257  1.0000
  C   C88       1.0  0.41329  0.70958  0.90743  1.0000
  C   C89       1.0  0.88331  0.72412  0.35188  1.0000
  C   C90       1.0  0.61669  0.22412  0.14812  1.0000
  C   C91       1.0  0.11669  0.27588  0.64812  1.0000
  C   C92       1.0  0.38331  0.77588  0.85188  1.0000
  C   C93       1.0  0.81453  0.61083  0.35120  1.0000
  C   C94       1.0  0.68547  0.11083  0.14880  1.0000
  C   C95       1.0  0.18547  0.38917  0.64880  1.0000
  C   C96       1.0  0.31453  0.88917  0.85120  1.0000
  C   C97       1.0  0.78387  0.54991  0.29644  1.0000
  C   C98       1.0  0.71613  0.04991  0.20356  1.0000
  C   C99       1.0  0.21613  0.45009  0.70356  1.0000
  C   C100      1.0  0.28387  0.95009  0.79644  1.0000
  C   C101      1.0  0.82208  0.59536  0.23741  1.0000
  C   C102      1.0  0.67792  0.09536  0.26259  1.0000
  C   C103      1.0  0.17792  0.40464  0.76259  1.0000
  C   C104      1.0  0.32208  0.90464  0.73741  1.0000
  C   C105      1.0  0.96380  0.28973  0.23126  1.0000
  C   C106      1.0  0.53620  0.78973  0.26874  1.0000
  C   C107      1.0  0.03620  0.71027  0.76874  1.0000
  C   C108      1.0  0.46380  0.21027  0.73126  1.0000
  C   C109      1.0  0.99429  0.34594  0.17474  1.0000
  C   C110      1.0  0.50571  0.84594  0.32526  1.0000
  C   C111      1.0  0.00571  0.65406  0.82526  1.0000
  C   C112      1.0  0.49429  0.15406  0.67474  1.0000
  C   C113      1.0  0.07443  0.44686  0.17666  1.0000
  C   C114      1.0  0.42557  0.94686  0.32334  1.0000
  C   C115      1.0  0.92557  0.55314  0.82334  1.0000
  C   C116      1.0  0.57443  0.05314  0.67666  1.0000
  C   C117      1.0  0.11845  0.49814  0.23388  1.0000
  C   C118      1.0  0.38155  0.99814  0.26612  1.0000
  C   C119      1.0  0.88155  0.50186  0.76612  1.0000
  C   C120      1.0  0.61845  0.00186  0.73388  1.0000
  C   C121      1.0  0.08451  0.44282  0.29136  1.0000
  C   C122      1.0  0.41549  0.94282  0.20864  1.0000
  C   C123      1.0  0.91549  0.55718  0.70864  1.0000
  C   C124      1.0  0.58451  0.05718  0.79136  1.0000
  C   C125      1.0  0.19130  0.60876  0.23680  1.0000
  C   C126      1.0  0.30870  0.10876  0.26320  1.0000
  C   C127      1.0  0.80870  0.39124  0.76320  1.0000
  C   C128      1.0  0.69130  0.89124  0.73680  1.0000
  C   C129      1.0  0.22602  0.66258  0.29291  1.0000
  C   C130      1.0  0.27398  0.16258  0.20709  1.0000
  C   C131      1.0  0.77398  0.33742  0.70709  1.0000
  C   C132      1.0  0.72602  0.83742  0.79291  1.0000
  C   C133      1.0  0.19455  0.60804  0.35130  1.0000
  C   C134      1.0  0.30545  0.10804  0.14870  1.0000
  C   C135      1.0  0.80545  0.39196  0.64870  1.0000
  C   C136      1.0  0.69455  0.89196  0.85130  1.0000
  C   C137      1.0  0.12353  0.49660  0.34988  1.0000
  C   C138      1.0  0.37647  0.99660  0.15012  1.0000
  C   C139      1.0  0.87647  0.50340  0.65012  1.0000
  C   C140      1.0  0.62353  0.00340  0.84988  1.0000
  C   C141      1.0  0.23058  0.66078  0.40968  1.0000
  C   C142      1.0  0.26942  0.16078  0.09032  1.0000
  C   C143      1.0  0.76942  0.33922  0.59032  1.0000
  C   C144      1.0  0.73058  0.83922  0.90968  1.0000
  C   C145      1.0  0.19900  0.60445  0.46550  1.0000
  C   C146      1.0  0.30100  0.10445  0.03450  1.0000
  C   C147      1.0  0.80100  0.39555  0.53450  1.0000
  C   C148      1.0  0.69900  0.89555  0.96550  1.0000
  C   C149      1.0  0.12942  0.49599  0.46446  1.0000
  C   C150      1.0  0.37058  0.99599  0.03554  1.0000
  C   C151      1.0  0.87058  0.50401  0.53554  1.0000
  C   C152      1.0  0.62942  0.00401  0.96446  1.0000
  C   C153      1.0  0.08942  0.44085  0.40728  1.0000
  C   C154      1.0  0.41058  0.94085  0.09272  1.0000
  C   C155      1.0  0.91058  0.55915  0.59272  1.0000
  C   C156      1.0  0.58942  0.05915  0.90728  1.0000
  C   C157      1.0  0.01402  0.33199  0.40423  1.0000
  C   C158      1.0  0.48598  0.83199  0.09577  1.0000
  C   C159      1.0  0.98598  0.66801  0.59577  1.0000
  C   C160      1.0  0.51402  0.16801  0.90423  1.0000
  C   C161      1.0  0.97343  0.28273  0.34791  1.0000
  C   C162      1.0  0.52657  0.78273  0.15209  1.0000
  C   C163      1.0  0.02657  0.71727  0.65209  1.0000
  C   C164      1.0  0.47343  0.21727  0.84791  1.0000
  C   C165      1.0  0.00756  0.33597  0.28964  1.0000
  C   C166      1.0  0.49244  0.83597  0.21036  1.0000
  C   C167      1.0  0.99244  0.66403  0.71036  1.0000
  C   C168      1.0  0.50756  0.16403  0.78964  1.0000
  H   H1        1.0  0.75059  0.63942  0.01912  1.0000
  H   H2        1.0  0.74941  0.13942  0.48088  1.0000
  H   H3        1.0  0.24941  0.36058  0.98088  1.0000
  H   H4        1.0  0.25059  0.86058  0.51912  1.0000
  H   H5        1.0  0.71526  0.52518  0.91886  1.0000
  H   H6        1.0  0.78474  0.02518  0.58114  1.0000
  H   H7        1.0  0.28474  0.47482  0.08114  1.0000
  H   H8        1.0  0.21526  0.97482  0.41886  1.0000
  H   H9        1.0  0.77207  0.29886  0.91271  1.0000
  H   H10       1.0  0.72793  0.79886  0.58729  1.0000
  H   H11       1.0  0.22793  0.70114  0.08729  1.0000
  H   H12       1.0  0.27207  0.20114  0.41271  1.0000
  H   H13       1.0  0.85317  0.11633  0.95794  1.0000
  H   H14       1.0  0.64683  0.61633  0.54206  1.0000
  H   H15       1.0  0.14683  0.88367  0.04206  1.0000
  H   H16       1.0  0.35317  0.38367  0.45794  1.0000
  H   H17       1.0  0.94937  0.99978  0.04821  1.0000
  H   H18       1.0  0.55063  0.49978  0.45179  1.0000
  H   H19       1.0  0.05063  0.00022  0.95179  1.0000
  H   H20       1.0  0.44937  0.50022  0.54821  1.0000
  H   H21       1.0  0.01321  0.11588  0.14507  1.0000
  H   H22       1.0  0.48679  0.61588  0.35493  1.0000
  H   H23       1.0  0.98679  0.88412  0.85493  1.0000
  H   H24       1.0  0.51321  0.38412  0.64507  1.0000
  H   H25       1.0  0.74943  0.44167  0.18235  1.0000
  H   H26       1.0  0.75057  0.94167  0.31765  1.0000
  H   H27       1.0  0.25057  0.55833  0.81765  1.0000
  H   H28       1.0  0.24943  0.05833  0.68235  1.0000
  H   H29       1.0  0.95058  0.71061  0.08038  1.0000
  H   H30       1.0  0.54942  0.21061  0.41962  1.0000
  H   H31       1.0  0.04942  0.28939  0.91962  1.0000
  H   H32       1.0  0.45058  0.78939  0.58038  1.0000
  H   H33       1.0  0.04420  0.89294  0.13568  1.0000
  H   H34       1.0  0.45580  0.39294  0.36432  1.0000
  H   H35       1.0  0.95580  0.10706  0.86432  1.0000
  H   H36       1.0  0.54420  0.60706  0.63568  1.0000
  H   H37       1.0  0.09210  0.00843  0.23418  1.0000
  H   H38       1.0  0.40790  0.50843  0.26582  1.0000
  H   H39       1.0  0.90790  0.99157  0.76582  1.0000
  H   H40       1.0  0.59210  0.49157  0.73418  1.0000
  H   H41       1.0  0.07114  0.03339  0.34843  1.0000
  H   H42       1.0  0.42886  0.53339  0.15157  1.0000
  H   H43       1.0  0.92886  0.96661  0.65157  1.0000
  H   H44       1.0  0.57114  0.46661  0.84843  1.0000
  H   H45       1.0  0.99927  0.95241  0.44947  1.0000
  H   H46       1.0  0.50073  0.45241  0.05053  1.0000
  H   H47       1.0  0.00073  0.04759  0.55053  1.0000
  H   H48       1.0  0.49927  0.54759  0.94947  1.0000
  H   H49       1.0  0.88238  0.75576  0.45189  1.0000
  H   H50       1.0  0.61762  0.25576  0.04811  1.0000
  H   H51       1.0  0.11762  0.24424  0.54811  1.0000
  H   H52       1.0  0.38238  0.74424  0.95189  1.0000
  H   H53       1.0  0.78619  0.57391  0.39573  1.0000
  H   H54       1.0  0.71381  0.07391  0.10427  1.0000
  H   H55       1.0  0.21381  0.42609  0.60427  1.0000
  H   H56       1.0  0.28619  0.92609  0.89573  1.0000
  H   H57       1.0  0.73213  0.46341  0.29698  1.0000
  H   H58       1.0  0.76787  0.96341  0.20302  1.0000
  H   H59       1.0  0.26787  0.53659  0.70302  1.0000
  H   H60       1.0  0.23213  0.03659  0.79698  1.0000
  H   H61       1.0  0.90131  0.21121  0.23005  1.0000
  H   H62       1.0  0.59869  0.71121  0.26995  1.0000
  H   H63       1.0  0.09869  0.78879  0.76995  1.0000
  H   H64       1.0  0.40131  0.28879  0.73005  1.0000
  H   H65       1.0  0.09973  0.48961  0.13289  1.0000
  H   H66       1.0  0.40027  0.98961  0.36711  1.0000
  H   H67       1.0  0.90027  0.51039  0.86711  1.0000
  H   H68       1.0  0.59973  0.01039  0.63289  1.0000
  H   H69       1.0  0.21548  0.65246  0.19295  1.0000
  H   H70       1.0  0.28452  0.15246  0.30705  1.0000
  H   H71       1.0  0.78452  0.34754  0.80705  1.0000
  H   H72       1.0  0.71548  0.84754  0.69295  1.0000
  H   H73       1.0  0.27783  0.74910  0.29415  1.0000
  H   H74       1.0  0.22217  0.24910  0.20585  1.0000
  H   H75       1.0  0.72217  0.25090  0.70585  1.0000
  H   H76       1.0  0.77783  0.75090  0.79415  1.0000
  H   H77       1.0  0.28497  0.74559  0.41067  1.0000
  H   H78       1.0  0.21503  0.24559  0.08933  1.0000
  H   H79       1.0  0.71503  0.25441  0.58933  1.0000
  H   H80       1.0  0.78497  0.75441  0.91067  1.0000
  H   H81       1.0  0.22966  0.64454  0.51062  1.0000
  H   H82       1.0  0.27034  0.14454  0.98938  1.0000
  H   H83       1.0  0.77034  0.35546  0.48938  1.0000
  H   H84       1.0  0.72966  0.85546  0.01062  1.0000
  H   H85       1.0  0.10489  0.45313  0.50838  1.0000
  H   H86       1.0  0.39511  0.95313  0.99162  1.0000
  H   H87       1.0  0.89511  0.54687  0.49162  1.0000
  H   H88       1.0  0.60489  0.04687  0.00838  1.0000
  H   H89       1.0  0.98756  0.29026  0.44820  1.0000
  H   H90       1.0  0.51244  0.79026  0.05180  1.0000
  H   H91       1.0  0.01244  0.70974  0.55180  1.0000
  H   H92       1.0  0.48756  0.20974  0.94820  1.0000
  H   H93       1.0  0.91282  0.20246  0.34634  1.0000
  H   H94       1.0  0.58718  0.70246  0.15366  1.0000
  H   H95       1.0  0.08718  0.79754  0.65366  1.0000
  H   H96       1.0  0.41282  0.29754  0.84634  1.0000
